Version 4
SHEET 1 880 680
WIRE 32 64 -32 64
WIRE 144 64 112 64
WIRE 288 64 144 64
WIRE 144 112 144 64
WIRE 288 112 288 64
WIRE 144 224 144 192
WIRE 288 224 288 176
WIRE 288 224 144 224
SYMBOL res 128 96 R0
SYMATTR InstName R1
SYMBOL cap 272 112 R0
SYMATTR InstName C1
SYMBOL ind 16 80 R270
WINDOW 0 32 56 VTop 2
WINDOW 3 5 56 VBottom 2
SYMATTR InstName L1
SYMBOL MyFilter 368 0 R0
SYMATTR InstName U1
TEXT -24 40 Left 2 ;1
TEXT 216 40 Left 2 ;2
TEXT 216 240 Left 2 ;3
