Version 4
SHEET 1 880 680
WIRE 0 -32 -32 -32
WIRE 96 -32 64 -32
WIRE 320 -32 128 -32
WIRE 128 -16 128 -32
WIRE -32 64 -32 -32
WIRE 96 64 96 -32
WIRE 128 64 128 48
WIRE 128 64 96 64
WIRE 320 160 320 -32
WIRE -32 256 -32 144
WIRE 96 256 -32 256
WIRE 320 256 320 240
WIRE 320 256 96 256
WIRE 96 288 96 256
FLAG 96 288 0
FLAG -32 -32 in
SYMBOL voltage -32 48 R0
WINDOW 0 -120 3 Left 2
WINDOW 3 -205 37 Left 2
WINDOW 123 0 0 Left 0
WINDOW 39 0 0 Left 0
SYMATTR InstName V1
SYMATTR Value SINE(0 10 60)
SYMBOL cap 112 -16 R0
SYMATTR InstName C1
SYMATTR Value 10µ
SYMBOL diode 0 -16 R270
WINDOW 0 32 32 VTop 2
WINDOW 3 0 32 VBottom 2
SYMATTR InstName D1
SYMBOL res 304 144 R0
SYMATTR InstName R1
SYMATTR Value 10
TEXT -136 328 Left 2 !.tran .2
TEXT 96 112 Left 2 ;test\ntest1
