Version 4
SHEET 1 880 680
WIRE 128 112 -48 112
WIRE 416 112 256 112
WIRE 416 160 416 112
WIRE -48 192 -48 112
WIRE -48 336 -48 272
WIRE 192 336 192 160
WIRE 192 336 -48 336
WIRE 416 336 416 240
WIRE 416 336 192 336
WIRE 192 352 192 336
FLAG 192 352 0
SYMBOL MyFilter 192 112 R0
SYMATTR InstName U1
SYMBOL voltage -48 176 R0
WINDOW 123 0 0 Left 0
WINDOW 39 0 0 Left 0
SYMATTR InstName V1
SYMATTR Value SINE(0 10 60)
SYMBOL res 400 144 R0
SYMATTR InstName R1
SYMATTR Value 1Meg
TEXT -80 376 Left 2 !.tran .2
TEXT -80 408 Left 2 !.inc MyFilter.sub
